/*--------------------------------*- C++ -*----------------------------------*\
  =========                 |
  \\      /  F ield         | OpenFOAM: The Open Source CFD Toolbox
   \\    /   O peration     | Website:  https://openfoam.org
    \\  /    A nd           | Version:  7
     \\/     M anipulation  |
\*---------------------------------------------------------------------------*/
FoamFile
{
    version     2.0;
    format      ascii;
    class       polyBoundaryMesh;
    location    "constant/polyMesh";
    object      boundary;
}
// * * * * * * * * * * * * * * * * * * * * * * * * * * * * * * * * * * * * * //

7
(
    back
    {
        type            patch;
        physicalType    patch;
        nFaces          121076;
        startFace       180262;
    }
    front
    {
        type            patch;
        physicalType    patch;
        nFaces          121076;
        startFace       301338;
    }
    wall
    {
        type            patch;
        physicalType    patch;
        nFaces          1551;
        startFace       422414;
    }
    oxidizer_inlet
    {
        type            patch;
        physicalType    patch;
        nFaces          29;
        startFace       423965;
    }
    axis
    {
        type            patch;
        physicalType    patch;
        nFaces          1111;
        startFace       423994;
    }
    fuel_inlet
    {
        type            patch;
        physicalType    patch;
        nFaces          3;
        startFace       425105;
    }
    outlet
    {
        type            patch;
        physicalType    patch;
        nFaces          10;
        startFace       425108;
    }
)

// ************************************************************************* //
