/*--------------------------------*- C++ -*----------------------------------*\
  =========                 |
  \\      /  F ield         | OpenFOAM: The Open Source CFD Toolbox
   \\    /   O peration     | Website:  https://openfoam.org
    \\  /    A nd           | Version:  7
     \\/     M anipulation  |
\*---------------------------------------------------------------------------*/
FoamFile
{
    version     2.0;
    format      ascii;
    class       polyBoundaryMesh;
    location    "constant/polyMesh";
    object      boundary;
}
// * * * * * * * * * * * * * * * * * * * * * * * * * * * * * * * * * * * * * //

10
(
    back
    {
        type            wedge;
        inGroups        List<word> 1(wedge);
        nFaces          71986;
        startFace       140561;
    }
    front
    {
        type            wedge;
        inGroups        List<word> 1(wedge);
        nFaces          71986;
        startFace       212547;
    }
    wall
    {
        type            wall;
        inGroups List<word> 1(wall);
        nFaces          1509;
        startFace       284533;
    }
    oxidizer_inlet
    {
        type            patch;
        physicalType    patch;
        nFaces          31;
        startFace       286042;
    }
    oxidizer_slot_1
    {
        type            wall;
        inGroups List<word> 1(wall);
        nFaces          36;
        startFace       286073;
    }
    oxidizer_slot_2
    {
        type            wall;
        inGroups List<word> 1(wall);
        nFaces          34;
        startFace       286109;
    }
    oxidizer_slot_3
    {
        type            wall;
        inGroups List<word> 1(wall);
        nFaces          32;
        startFace       286143;
    }
    axis
    {
        type            empty;
        inGroups List<word> 1(empty);
        nFaces          1250;
        startFace       286175;
    }
    fuel_inlet
    {
        type            patch;
        physicalType    patch;
        nFaces          3;
        startFace       287425;
    }
    outlet
    {
        type            patch;
        physicalType    patch;
        nFaces          40;
        startFace       287428;
    }
)

// ************************************************************************* //
