/*--------------------------------*- C++ -*----------------------------------*\
  =========                 |
  \\      /  F ield         | OpenFOAM: The Open Source CFD Toolbox
   \\    /   O peration     | Website:  https://openfoam.org
    \\  /    A nd           | Version:  7
     \\/     M anipulation  |
\*---------------------------------------------------------------------------*/
FoamFile
{
    version     2.0;
    format      ascii;
    class       polyBoundaryMesh;
    location    "constant/polyMesh";
    object      boundary;
}
// * * * * * * * * * * * * * * * * * * * * * * * * * * * * * * * * * * * * * //

7
(
    back
    {
        type            patch;
        physicalType    patch;
        nFaces          120089;
        startFace       178811;
    }
    front
    {
        type            patch;
        physicalType    patch;
        nFaces          120089;
        startFace       298900;
    }
    wall
    {
        type            patch;
        physicalType    patch;
        nFaces          1493;
        startFace       418989;
    }
    oxidizer_inlet
    {
        type            patch;
        physicalType    patch;
        nFaces          29;
        startFace       420482;
    }
    axis
    {
        type            patch;
        physicalType    patch;
        nFaces          1111;
        startFace       420511;
    }
    fuel_inlet
    {
        type            patch;
        physicalType    patch;
        nFaces          2;
        startFace       421622;
    }
    outlet
    {
        type            patch;
        physicalType    patch;
        nFaces          10;
        startFace       421624;
    }
)

// ************************************************************************* //
