/*--------------------------------*- C++ -*----------------------------------*\
  =========                 |
  \\      /  F ield         | OpenFOAM: The Open Source CFD Toolbox
   \\    /   O peration     | Website:  https://openfoam.org
    \\  /    A nd           | Version:  7
     \\/     M anipulation  |
\*---------------------------------------------------------------------------*/
FoamFile
{
    version     2.0;
    format      ascii;
    class       polyBoundaryMesh;
    location    "constant/polyMesh";
    object      boundary;
}
// * * * * * * * * * * * * * * * * * * * * * * * * * * * * * * * * * * * * * //

10
(
    wedgeFront
    {
        type            patch;
        physicalType    patch;
        nFaces          16085;
        startFace       31244;
    }
    wedgeBack
    {
        type            patch;
        physicalType    patch;
        nFaces          16085;
        startFace       47329;
    }
    wall
    {
        type            patch;
        physicalType    patch;
        nFaces          695;
        startFace       63414;
    }
    oxidizer_inlet
    {
        type            patch;
        physicalType    patch;
        nFaces          34;
        startFace       64109;
    }
    oxidizer_slot_1
    {
        type            patch;
        physicalType    patch;
        nFaces          28;
        startFace       64143;
    }
    oxidizer_slot_2
    {
        type            patch;
        physicalType    patch;
        nFaces          26;
        startFace       64171;
    }
    oxidizer_slot_3
    {
        type            patch;
        physicalType    patch;
        nFaces          24;
        startFace       64197;
    }
    fuel_inlet
    {
        type            patch;
        physicalType    patch;
        nFaces          3;
        startFace       64221;
    }
    outlet
    {
        type            patch;
        physicalType    patch;
        nFaces          24;
        startFace       64224;
    }
    defaultFaces
    {
        type            patch;
        nFaces          544;
        startFace       64248;
    }
)

// ************************************************************************* //
