/*--------------------------------*- C++ -*----------------------------------*\
| =========                 |                                                 |
| \\      /  F ield         | OpenFOAM: The Open Source CFD Toolbox           |
|  \\    /   O peration     | Version:  7                                     |
|   \\  /    A nd           | Web:      www.OpenFOAM.org                      |
|    \\/     M anipulation  |                                                 |
\*---------------------------------------------------------------------------*/
FoamFile
{
    version     2.0;
    format      binary;
    class       polyBoundaryMesh;
    location    "constant/polyMesh";
    object      boundary;
}
// * * * * * * * * * * * * * * * * * * * * * * * * * * * * * * * * * * * * * //

10
(
    wedgeFront
    {
        type            wedge;
        nFaces          16285;
        startFace       31253;
    }
    wedgeBack
    {
        type            wedge;
        nFaces          16285;
        startFace       47538;
    }
    wall
    {
        type            wall;
        nFaces          701;
        startFace       63823;
    }
    oxidizer_inlet
    {
        type            patch;
        nFaces          31;
        startFace       64524;
    }
    oxidizer_slot_1
    {
        type            patch;
        nFaces          28;
        startFace       64555;
    }
    oxidizer_slot_2
    {
        type            patch;
        nFaces          26;
        startFace       64583;
    }
    oxidizer_slot_3
    {
        type            patch;
        nFaces          24;
        startFace       64609;
    }
    fuel_inlet
    {
        type            patch;
        nFaces          3;
        startFace       64633;
    }
    outlet
    {
        type            patch;
        nFaces          24;
        startFace       64636;
    }
    axis
    {
        type            empty;
        nFaces          538;
        startFace       64660;
    }
)

// ************************************************************************* //
