/*--------------------------------*- C++ -*----------------------------------*\
  =========                 |
  \\      /  F ield         | OpenFOAM: The Open Source CFD Toolbox
   \\    /   O peration     | Website:  https://openfoam.org
    \\  /    A nd           | Version:  7
     \\/     M anipulation  |
\*---------------------------------------------------------------------------*/
FoamFile
{
    version     2.0;
    format      ascii;
    class       polyBoundaryMesh;
    location    "constant/polyMesh";
    object      boundary;
}
// * * * * * * * * * * * * * * * * * * * * * * * * * * * * * * * * * * * * * //

7
(
    back
    {
        type            patch;
        physicalType    patch;
        nFaces          15966;
        startFace       31245;
    }
    front
    {
        type            patch;
        physicalType    patch;
        nFaces          15966;
        startFace       47211;
    }
    axis
    {
        type            patch;
        physicalType    patch;
        nFaces          561;
        startFace       63177;
    }
    wall
    {
        type            patch;
        physicalType    patch;
        nFaces          747;
        startFace       63738;
    }
    oxidizer_inlet
    {
        type            patch;
        physicalType    patch;
        nFaces          37;
        startFace       64485;
    }
    fuel_inlet
    {
        type            patch;
        physicalType    patch;
        nFaces          3;
        startFace       64522;
    }
    outlet
    {
        type            patch;
        physicalType    patch;
        nFaces          24;
        startFace       64525;
    }
)

// ************************************************************************* //
