/*--------------------------------*- C++ -*----------------------------------*\
  =========                 |
  \\      /  F ield         | OpenFOAM: The Open Source CFD Toolbox
   \\    /   O peration     | Website:  https://openfoam.org
    \\  /    A nd           | Version:  7
     \\/     M anipulation  |
\*---------------------------------------------------------------------------*/
FoamFile
{
    version     2.0;
    format      ascii;
    class       polyBoundaryMesh;
    location    "constant/polyMesh";
    object      boundary;
}
// * * * * * * * * * * * * * * * * * * * * * * * * * * * * * * * * * * * * * //

10
(
    wedgeFront
    {
        type            patch;
        physicalType    patch;
        nFaces          16068;
        startFace       31211;
    }
    wedgeBack
    {
        type            patch;
        physicalType    patch;
        nFaces          16068;
        startFace       47279;
    }
    wall
    {
        type            patch;
        physicalType    patch;
        nFaces          695;
        startFace       63347;
    }
    oxidizer_inlet
    {
        type            patch;
        physicalType    patch;
        nFaces          33;
        startFace       64042;
    }
    oxidizer_slot_1
    {
        type            patch;
        physicalType    patch;
        nFaces          28;
        startFace       64075;
    }
    oxidizer_slot_2
    {
        type            patch;
        physicalType    patch;
        nFaces          26;
        startFace       64103;
    }
    oxidizer_slot_3
    {
        type            patch;
        physicalType    patch;
        nFaces          24;
        startFace       64129;
    }
    fuel_inlet
    {
        type            patch;
        physicalType    patch;
        nFaces          3;
        startFace       64153;
    }
    outlet
    {
        type            patch;
        physicalType    patch;
        nFaces          24;
        startFace       64156;
    }
    defaultFaces
    {
        type            patch;
        nFaces          544;
        startFace       64180;
    }
)

// ************************************************************************* //
