/*--------------------------------*- C++ -*----------------------------------*\
| =========                 |                                                 |
| \\      /  F ield         | OpenFOAM: The Open Source CFD Toolbox           |
|  \\    /   O peration     | Version:  7                                     |
|   \\  /    A nd           | Web:      www.OpenFOAM.org                      |
|    \\/     M anipulation  |                                                 |
\*---------------------------------------------------------------------------*/
FoamFile
{
    version     2.0;
    format      ascii;
    class       dictionary;
    location    "system";
    object      fvSchemes;
}
// * * * * * * * * * * * * * * * * * * * * * * * * * * * * * * * * * * * * * //
// CVRC Combustor - Finite Volume Schemes for dfLowMachFoam
// -----------------------------------------------------------------------------

ddtSchemes
{
    default         Euler;
}

gradSchemes
{
    default         Gauss linear;
}

divSchemes
{
    default             none;

    div(phi,U)          Gauss limitedLinearV 1;
    div(phi,Yi)         Gauss limitedLinear01 1;
    div(phi,h)          Gauss limitedLinear 1;
    div(phi,K)          Gauss limitedLinear 1;
    div(phid,p)         Gauss limitedLinear 1;
    div(phi,epsilon)    Gauss limitedLinear 1;
    div(phi,Yi_h)       Gauss limitedLinear01 1;
    div(phi,k)          Gauss limitedLinear 1;
    div(((rho*nuEff)*dev2(T(grad(U)))))     Gauss linear;
    div(vk)             Gauss linear;
    div(phi,ha)        Gauss limitedLinear 1;
    div(hDiffCorrFlux) Gauss linear;
}

laplacianSchemes
{
    default         Gauss linear orthogonal;
}

interpolationSchemes
{
    default         linear;
}

snGradSchemes
{
    default         orthogonal;
}

// ************************************************************************* //