/*--------------------------------*- C++ -*----------------------------------*\
| =========                 |                                                 |
| \\      /  F ield         | OpenFOAM: The Open Source CFD Toolbox           |
|  \\    /   O peration     | Version:  7                                     |
|   \\  /    A nd           | Web:      www.OpenFOAM.org                      |
|    \\/     M anipulation  |                                                 |
\*---------------------------------------------------------------------------*/
FoamFile
{
    version     2.0;
    format      ascii;
    class       dictionary;
    location    "system";
    object      fvSchemes;
}
// * * * * * * * * * * * * * * * * * * * * * * * * * * * * * * * * * * * * * //
// CVRC Combustor - Finite Volume Schemes for dfHighSpeedFoam
// -----------------------------------------------------------------------------

fluxScheme          Tadmor;

ddtSchemes
{
    default         Euler;
}

gradSchemes
{
    default         Gauss linear;
}

divSchemes
{
    default             none;
    div(tauMC)          Gauss linear;
    div(hDiffCorrFlux)   Gauss cubic;
    div(phi,Yi_h)       Gauss vanLeer;
}

laplacianSchemes
{
    default         Gauss linear uncorrected;
}

interpolationSchemes
{
    default             linear;
    reconstruct(rho)    Minmod;
    reconstruct(U)      MinmodV;
    reconstruct(T)      Minmod;
    reconstruct(Yi)     Minmod;
}

snGradSchemes
{
    default         uncorrected;
}

// ************************************************************************* //