/*--------------------------------*- C++ -*----------------------------------*\
| =========                 |                                                 |
| \\      /  F ield         | OpenFOAM: The Open Source CFD Toolbox           |
|  \\    /   O peration     | Version:  7                                     |
|   \\  /    A nd           | Web:      www.OpenFOAM.org                      |
|    \\/     M anipulation  |                                                 |
\*---------------------------------------------------------------------------*/
FoamFile
{
    version     2.0;
    format      ascii;
    class       dictionary;
    location    "constant";
    object      sprayCloudProperties;
}
// * * * * * * * * * * * * * * * * * * * * * * * * * * * * * * * * * * * * * //
// CVRC Combustor - Spray Cloud Properties
// 
// Spray modeling disabled for this gas-phase-only combustion case.
// Enable for liquid fuel injection simulations.
// -----------------------------------------------------------------------------

solution
{
    active          false;
    coupled         false;
    transient       no;
    cellValueSourceCorrection off;
}

// ************************************************************************* //