/*--------------------------------*- C++ -*----------------------------------*\
| =========                 |                                                 |
| \\      /  F ield         | OpenFOAM: The Open Source CFD Toolbox           |
|  \\    /   O peration     | Version:  7                                     |
|   \\  /    A nd           | Web:      www.OpenFOAM.org                      |
|    \\/     M anipulation  |                                                 |
\*---------------------------------------------------------------------------*/
FoamFile
{
    version     2.0;
    format      ascii;
    class       dictionary;
    location    "constant";
    object      thermophysicalProperties;
}
// * * * * * * * * * * * * * * * * * * * * * * * * * * * * * * * * * * * * * //
// CVRC Combustor - Thermophysical Properties for dfHighSpeedFoam
// 
// Set inviscid to false for viscous flow (with boundary layers)
// Set inviscid to true for inviscid flow (Euler equations only)
// -----------------------------------------------------------------------------

inviscid     false;

liquids
{
}

solids
{}

// ************************************************************************* //