/*--------------------------------*- C++ -*----------------------------------*\
| =========                 |                                                 |
| \\      /  F ield         | OpenFOAM: The Open Source CFD Toolbox           |
|  \\    /   O peration     | Version:  7                                     |
|   \\  /    A nd           | Web:      www.OpenFOAM.org                      |
|    \\/     M anipulation  |                                                 |
\*---------------------------------------------------------------------------*/
FoamFile
{
    version     2.0;
    format      ascii;
    class       volScalarField;
    location    "0";
    object      H2O;
}
// * * * * * * * * * * * * * * * * * * * * * * * * * * * * * * * * * * * * * //
// CVRC Combustor - Water Vapor Mass Fraction
// 
// Hot oxidizer composition (1029 K): 58% H2O, 42% O2 by weight
// 
// Boundary conditions:
//   - oxidizer_inlet: Y_H2O = 0.58 (hot oxidizer)
//   - fuel_inlet: Y_H2O = 0 (no water in fuel)
//   - oxidizer_slots: Y_H2O = 0.58 (same as main oxidizer)
// -----------------------------------------------------------------------------

dimensions      [0 0 0 0 0 0 0];

internalField   uniform 0.58;

boundaryField
{
    wedgeFront
    {
        type            wedge;
    }
    wedgeBack
    {
        type            wedge;
    }

    axis
    {
        type            empty;
    }

    wall
    {
        type            zeroGradient;
    }

    // Hot oxidizer: 58% H2O, 42% O2
    oxidizer_inlet
    {
        type            fixedValue;
        value           uniform 0.58;
    }

    // Fuel: pure methane, no water
    fuel_inlet
    {
        type            fixedValue;
        value           uniform 0;
    }

    oxidizer_slot_1
    {
        type            fixedValue;
        value           uniform 0.58;
    }
    oxidizer_slot_2
    {
        type            fixedValue;
        value           uniform 0.58;
    }
    oxidizer_slot_3
    {
        type            fixedValue;
        value           uniform 0.58;
    }

    outlet
    {
        type            zeroGradient;
    }
}

// ************************************************************************* //